CPDS_validation_cosim/Network_models/Distribution/J1/J1_Power_elem_kVA.txt

CIRCUIT ELEMENT POWER FLOW

(Power Flow into element from indicated Bus)

Power Delivery Elements

  Bus                Phase     kW     +j   kvar         kVA         PF

ELEMENT = "Vsource.SOURCE"
S                        1     -3747.2 +j     64.2     3747.7      -0.9999
S                        2     -3843.2 +j     52.7     3843.6      -0.9999
S                        3     -4035.9 +j   -104.8     4037.3       0.9997
   TERMINAL TOTAL ............-11626.3 +j     12.1    11626.3      -1.0000
S                        0         0.0 +j      0.0        0.0       1.0000
S                        0         0.0 +j      0.0        0.0       1.0000
S                        0         0.0 +j      0.0        0.0       1.0000
   TERMINAL TOTAL ............     0.0 +j      0.0        0.0       1.0000

ELEMENT = "Transformer.SUBXFMR"
S                        1      3747.2 +j    -64.2     3747.7      -0.9999
S                        2      3843.2 +j    -52.7     3843.6      -0.9999
S                        3      4035.9 +j    104.8     4037.3       0.9997
S                        0         0.0 +j      0.0        0.0       1.0000
   TERMINAL TOTAL ............ 11626.3 +j    -12.1    11626.3      -1.0000
LS_BUS                   1     -3714.4 +j    384.5     3734.2      -0.9947
LS_BUS                   2     -3808.7 +j    389.0     3828.6      -0.9948
LS_BUS                   3     -3997.3 +j    271.6     4006.5      -0.9977
LS_BUS                   0         0.0 +j      0.0        0.0       1.0000
   TERMINAL TOTAL ............-11520.4 +j   1045.1    11567.7      -0.9959

ELEMENT = "Line.TEMP_SUB"
LS_BUS                   1      2000.5 +j     -8.7     2000.5      -1.0000
LS_BUS                   2      2093.9 +j    -12.4     2093.9      -1.0000
LS_BUS                   3      2297.5 +j     92.7     2299.4       0.9992
   TERMINAL TOTAL ............  6391.9 +j     71.7     6392.3       0.9999
FEEDERHEAD               1     -2000.4 +j      8.8     2000.4      -1.0000
FEEDERHEAD               2     -2093.8 +j     12.4     2093.9      -1.0000
FEEDERHEAD               3     -2297.4 +j    -92.6     2299.3       0.9992
   TERMINAL TOTAL ............ -6391.6 +j    -71.4     6392.0       0.9999

ELEMENT = "Line.OH_B13552"
B12541                   1        93.3 +j     68.7      115.9       0.8053
   TERMINAL TOTAL ............    93.3 +j     68.7      115.9       0.8053
B13552                   1       -93.3 +j    -68.7      115.8       0.8052
   TERMINAL TOTAL ............   -93.3 +j    -68.7      115.8       0.8052

ELEMENT = "Line.OH_B41869"
B41868                   1       262.6 +j    188.3      323.2       0.8127
B41868                   2       310.7 +j    203.1      371.2       0.8370
   TERMINAL TOTAL ............   573.4 +j    391.5      694.3       0.8259
B41869                   1      -262.5 +j   -188.3      323.1       0.8126
B41869                   2      -310.6 +j   -203.0      371.1       0.8371
   TERMINAL TOTAL ............  -573.1 +j   -391.3      694.0       0.8259

ELEMENT = "Line.OH_B34986"
B4609                    3         5.3 +j      3.5        6.4       0.8338
   TERMINAL TOTAL ............     5.3 +j      3.5        6.4       0.8338
B34986                   3        -5.3 +j     -3.5        6.4       0.8325
   TERMINAL TOTAL ............    -5.3 +j     -3.5        6.4       0.8325

ELEMENT = "Line.OH_G43133"
G43132                   3        10.4 +j      6.6       12.3       0.8465
   TERMINAL TOTAL ............    10.4 +j      6.6       12.3       0.8465
G43133                   3       -10.4 +j     -6.6       12.3       0.8462
   TERMINAL TOTAL ............   -10.4 +j     -6.6       12.3       0.8462

ELEMENT = "Line.OH_B18916"
B18915                   1       633.0 +j     49.1      634.9       0.9970
B18915                   2       608.4 +j     -8.6      608.5      -0.9999
B18915                   3       412.7 +j   -162.4      443.5      -0.9305
   TERMINAL TOTAL ............  1654.2 +j   -121.9     1658.7      -0.9973
B18916                   1      -632.8 +j    -48.9      634.7       0.9970
B18916                   2      -608.3 +j      8.8      608.3      -0.9999
B18916                   3      -412.7 +j    162.5      443.5      -0.9305
   TERMINAL TOTAL ............ -1653.7 +j    122.4     1658.3      -0.9973

ELEMENT = "Line.OH_5862128364"
B4833                    1        63.5 +j     60.1       87.5       0.7261
B4833                    2        63.6 +j     60.3       87.6       0.7258
B4833                    3        63.8 +j     61.1       88.4       0.7221
   TERMINAL TOTAL ............   190.9 +j    181.6      263.5       0.7247
5862128364               1       -63.5 +j    -60.1       87.5       0.7261
5862128364               2       -63.6 +j    -60.3       87.6       0.7258
5862128364               3       -63.8 +j    -61.1       88.4       0.7220
   TERMINAL TOTAL ............  -190.9 +j   -181.6      263.5       0.7246

ELEMENT = "Line.OH_B4784"
B4787                    1       234.6 +j    178.4      294.7       0.7960
B4787                    2       198.7 +j    137.0      241.4       0.8232
B4787                    3       677.2 +j    443.0      809.2       0.8369
   TERMINAL TOTAL ............  1110.6 +j    758.4     1344.8       0.8258
B4784                    1      -234.6 +j   -178.4      294.7       0.7960
B4784                    2      -198.7 +j   -137.1      241.4       0.8232
B4784                    3      -677.2 +j   -442.8      809.1       0.8369
   TERMINAL TOTAL ............ -1110.5 +j   -758.2     1344.7       0.8259

ELEMENT = "Line.OH_B45835"
B45833                   2        21.7 +j     14.7       26.2       0.8273
   TERMINAL TOTAL ............    21.7 +j     14.7       26.2       0.8273
B45835                   2       -21.7 +j    -14.8       26.2       0.8269
   TERMINAL TOTAL ............   -21.7 +j    -14.8       26.2       0.8269

ELEMENT = "Line.OH_5925528209A"
5925528209               3         0.0 +j     -0.0        0.0      -0.0000
   TERMINAL TOTAL ............     0.0 +j     -0.0        0.0      -0.0000
5925528209A              3        -0.0 +j     -0.0        0.0       0.5085
   TERMINAL TOTAL ............    -0.0 +j     -0.0        0.0       0.5085

ELEMENT = "Line.OH_B50640"
6084829720               1        29.8 +j     22.0       37.0       0.8037
   TERMINAL TOTAL ............    29.8 +j     22.0       37.0       0.8037
B50640                   1       -29.8 +j    -22.1       37.0       0.8035
   TERMINAL TOTAL ............   -29.8 +j    -22.1       37.0       0.8035

ELEMENT = "Line.OH_B4805"
B4806                    1       245.6 +j    187.1      308.8       0.7955
B4806                    2       198.9 +j    137.0      241.5       0.8235
B4806                    3       704.4 +j    462.3      842.6       0.8360
   TERMINAL TOTAL ............  1148.9 +j    786.4     1392.2       0.8252
B4805                    1      -245.6 +j   -187.1      308.8       0.7956
B4805                    2      -198.8 +j   -137.0      241.5       0.8235
B4805                    3      -704.3 +j   -462.2      842.4       0.8361
   TERMINAL TOTAL ............ -1148.8 +j   -786.2     1392.1       0.8252

ELEMENT = "Line.OH_B4710"
B4711                    1       113.4 +j     86.7      142.8       0.7945
B4711                    2        95.7 +j     66.4      116.5       0.8217
B4711                    3       114.5 +j     74.7      136.7       0.8375
   TERMINAL TOTAL ............   323.6 +j    227.8      395.8       0.8178
B4710                    1      -113.4 +j    -86.7      142.8       0.7945
B4710                    2       -95.7 +j    -66.4      116.5       0.8217
B4710                    3      -114.5 +j    -74.7      136.7       0.8375
   TERMINAL TOTAL ............  -323.6 +j   -227.8      395.8       0.8177

ELEMENT = "Line.OH_B56678"
B56675                   2        35.3 +j     23.0       42.1       0.8379
   TERMINAL TOTAL ............    35.3 +j     23.0       42.1       0.8379
B56678                   2       -35.3 +j    -23.0       42.1       0.8377
   TERMINAL TOTAL ............   -35.3 +j    -23.0       42.1       0.8377

ELEMENT = "Line.OH_B4859"
B4861                    1      1756.5 +j    442.5     1811.4       0.9697
B4861                    2      1821.2 +j    423.8     1869.9       0.9740
B4861                    3      1943.5 +j    438.4     1992.4       0.9755
   TERMINAL TOTAL ............  5521.3 +j   1304.6     5673.4       0.9732
B4859                    1     -1756.2 +j   -441.2     1810.8       0.9699
B4859                    2     -1820.7 +j   -422.4     1869.1       0.9741
B4859                    3     -1943.0 +j   -436.7     1991.5       0.9757
   TERMINAL TOTAL ............ -5520.0 +j  -1300.4     5671.1       0.9734

ELEMENT = "Line.OH_B41240"
B10374                   1        15.3 +j     11.4       19.1       0.8023
   TERMINAL TOTAL ............    15.3 +j     11.4       19.1       0.8023
B41240                   1       -15.3 +j    -11.4       19.1       0.8020
   TERMINAL TOTAL ............   -15.3 +j    -11.4       19.1       0.8020

ELEMENT = "Line.OH_B55546"
B55545                   3         3.2 +j      2.1        3.8       0.8376
   TERMINAL TOTAL ............     3.2 +j      2.1        3.8       0.8376
B55546                   3        -3.2 +j     -2.1        3.8       0.8370
   TERMINAL TOTAL ............    -3.2 +j     -2.1        3.8       0.8370

ELEMENT = "Line.OH_B18979"
B18978                   3        82.3 +j     53.7       98.3       0.8372
   TERMINAL TOTAL ............    82.3 +j     53.7       98.3       0.8372
B18979                   3       -82.3 +j    -53.7       98.3       0.8372
   TERMINAL TOTAL ............   -82.3 +j    -53.7       98.3       0.8372

ELEMENT = "Line.OH_B4982"
B4987                    1      1858.4 +j   -172.0     1866.4      -0.9957
B4987                    2      1999.9 +j   -131.4     2004.2      -0.9978
B4987                    3      2047.6 +j   -143.6     2052.6      -0.9975
   TERMINAL TOTAL ............  5905.9 +j   -447.0     5922.8      -0.9971
B4982                    1     -1857.3 +j    176.4     1865.7      -0.9955
B4982                    2     -1997.8 +j    136.7     2002.5      -0.9977
B4982                    3     -2045.8 +j    150.0     2051.3      -0.9973
   TERMINAL TOTAL ............ -5900.9 +j    463.2     5919.0      -0.9969

ELEMENT = "Line.OH_B18902"
B18901                   1       665.2 +j     71.8      669.1       0.9942
B18901                   2       636.6 +j     11.6      636.7       0.9998
B18901                   3       413.4 +j   -161.6      443.8      -0.9313
   TERMINAL TOTAL ............  1715.1 +j    -78.2     1716.9      -0.9990
B18902                   1      -665.0 +j    -71.6      668.8       0.9942
B18902                   2      -636.4 +j    -11.4      636.5       0.9998
B18902                   3      -413.3 +j    161.7      443.8      -0.9313
   TERMINAL TOTAL ............ -1714.7 +j     78.6     1716.5      -0.9990

ELEMENT = "Line.OH_B2532"
B2526                    1        66.9 +j     49.9       83.5       0.8012
B2526                    2         0.0 +j     -0.1        0.1      -0.0037
B2526                    3       174.1 +j    107.8      204.8       0.8503
   TERMINAL TOTAL ............   241.0 +j    157.6      288.0       0.8369
B2532                    1       -66.9 +j    -50.0       83.5       0.8011
B2532                    2        -0.0 +j      0.1        0.1      -0.0038
B2532                    3      -174.1 +j   -107.7      204.7       0.8503
   TERMINAL TOTAL ............  -241.0 +j   -157.6      288.0       0.8369

ELEMENT = "Line.OH_B60891"
B60890                   2         0.0 +j     -0.0        0.0      -0.0000
   TERMINAL TOTAL ............     0.0 +j     -0.0        0.0      -0.0000
B60891                   2        -0.0 +j      0.0        0.0      -0.6243
   TERMINAL TOTAL ............    -0.0 +j      0.0        0.0      -0.6243

ELEMENT = "Line.OH_B47668"
B47667                   1         4.2 +j      3.2        5.3       0.7942
B47667                   2         4.4 +j      3.1        5.4       0.8194
B47667                   3         3.2 +j      2.2        3.9       0.8331
   TERMINAL TOTAL ............    11.9 +j      8.5       14.6       0.8142
B47668                   1        -4.2 +j     -3.2        5.3       0.7932
B47668                   2        -4.4 +j     -3.1        5.4       0.8185
B47668                   3        -3.2 +j     -2.2        3.9       0.8318
   TERMINAL TOTAL ............   -11.9 +j     -8.5       14.6       0.8131

ELEMENT = "Line.OH_B57845"
B41462                   3         3.2 +j      2.1        3.8       0.8401
   TERMINAL TOTAL ............     3.2 +j      2.1        3.8       0.8401
B57845                   3        -3.2 +j     -2.1        3.8       0.8397
   TERMINAL TOTAL ............    -3.2 +j     -2.1        3.8       0.8397

ELEMENT = "Line.OH_B4891"
B4896                    1      1790.6 +j     56.3     1791.5       0.9995
B4896                    2      1916.6 +j     83.1     1918.4       0.9991
B4896                    3      1989.4 +j     70.3     1990.6       0.9994
   TERMINAL TOTAL ............  5696.6 +j    209.8     5700.4       0.9993
B4891                    1     -1789.9 +j    -53.8     1790.7       0.9995
B4891                    2     -1915.4 +j    -80.0     1917.1       0.9991
B4891                    3     -1988.3 +j    -66.6     1989.4       0.9994
   TERMINAL TOTAL ............ -5693.6 +j   -200.3     5697.1       0.9994

ELEMENT = "Line.OH_B18858"
B18856                   1       698.9 +j     96.0      705.5       0.9907
B18856                   2       704.5 +j     63.5      707.3       0.9960
B18856                   3       433.0 +j   -147.3      457.4      -0.9467
   TERMINAL TOTAL ............  1836.4 +j     12.2     1836.4       1.0000
B18858                   1      -698.3 +j    -95.7      704.9       0.9907
B18858                   2      -704.0 +j    -62.9      706.8       0.9960
B18858                   3      -432.9 +j    147.4      457.3      -0.9466
   TERMINAL TOTAL ............ -1835.3 +j    -11.1     1835.3       1.0000

ELEMENT = "Line.OH_B33451"
B19064                   1         5.6 +j      4.3        7.1       0.7957
B19064                   3        10.7 +j      6.9       12.7       0.8392
   TERMINAL TOTAL ............    16.3 +j     11.2       19.8       0.8242
B33451                   1        -5.6 +j     -4.3        7.1       0.7947
B33451                   3       -10.7 +j     -6.9       12.7       0.8388
   TERMINAL TOTAL ............   -16.3 +j    -11.2       19.8       0.8236

ELEMENT = "Line.OH_B61746"
B60403                   2        68.5 +j     43.6       81.2       0.8439
   TERMINAL TOTAL ............    68.5 +j     43.6       81.2       0.8439
B61746                   2       -68.5 +j    -43.6       81.2       0.8438
   TERMINAL TOTAL ............   -68.5 +j    -43.6       81.2       0.8438

ELEMENT = "Line.OH_B56664"
B56663                   2       103.4 +j     67.2      123.4       0.8384
   TERMINAL TOTAL ............   103.4 +j     67.2      123.4       0.8384
B56664                   2      -103.4 +j    -67.2      123.3       0.8384
   TERMINAL TOTAL ............  -103.4 +j    -67.2      123.3       0.8384

ELEMENT = "Line.OH_B39819"
B39817                   3       115.5 +j     72.9      136.6       0.8455
   TERMINAL TOTAL ............   115.5 +j     72.9      136.6       0.8455
B39819                   3      -115.5 +j    -72.9      136.6       0.8455
   TERMINAL TOTAL ............  -115.5 +j    -72.9      136.6       0.8455

ELEMENT = "Line.OH_5851228580"
B16708                   3         5.3 +j      3.5        6.4       0.8347
   TERMINAL TOTAL ............     5.3 +j      3.5        6.4       0.8347
5851228580               3        -5.3 +j     -3.5        6.4       0.8335
   TERMINAL TOTAL ............    -5.3 +j     -3.5        6.4       0.8335

ELEMENT = "Line.OH_B18971"
B18969                   3       125.9 +j     81.1      149.8       0.8406
   TERMINAL TOTAL ............   125.9 +j     81.1      149.8       0.8406
B18971                   3      -125.9 +j    -81.1      149.7       0.8406
   TERMINAL TOTAL ............  -125.9 +j    -81.1      149.7       0.8406

ELEMENT = "Line.OH_5918528239"
G42392                   3         5.3 +j      3.5        6.4       0.8344
   TERMINAL TOTAL ............     5.3 +j      3.5        6.4       0.8344
5918528239               3        -5.3 +j     -3.5        6.4       0.8340
   TERMINAL TOTAL ............    -5.3 +j     -3.5        6.4       0.8340

ELEMENT = "Line.OH_B8019"
B19004                   3        10.6 +j      6.9       12.6       0.8365
   TERMINAL TOTAL ............    10.6 +j      6.9       12.6       0.8365
B8019                    3       -10.6 +j     -6.9       12.6       0.8358
   TERMINAL TOTAL ............   -10.6 +j     -6.9       12.6       0.8358

ELEMENT = "Line.OH_B31756"
B2648                    3       163.4 +j    101.0      192.1       0.8506
   TERMINAL TOTAL ............   163.4 +j    101.0      192.1       0.8506
B31756                   3      -163.4 +j   -101.0      192.1       0.8506
   TERMINAL TOTAL ............  -163.4 +j   -101.0      192.1       0.8506

ELEMENT = "Line.OH_B60843"
B60842                   3         3.2 +j      2.1        3.8       0.8398
   TERMINAL TOTAL ............     3.2 +j      2.1        3.8       0.8398
B60843                   3        -3.2 +j     -2.1        3.8       0.8389
   TERMINAL TOTAL ............    -3.2 +j     -2.1        3.8       0.8389

ELEMENT = "Line.OH_6095529388"
B18997                   3        10.6 +j      6.9       12.6       0.8365
   TERMINAL TOTAL ............    10.6 +j      6.9       12.6       0.8365
6095529388               3       -10.6 +j     -6.9       12.6       0.8364
   TERMINAL TOTAL ............   -10.6 +j     -6.9       12.6       0.8364

ELEMENT = "Line.OH_B44432"
B26169                   3        35.0 +j     22.8       41.8       0.8377
   TERMINAL TOTAL ............    35.0 +j     22.8       41.8       0.8377
B44432                   3       -35.0 +j    -22.8       41.8       0.8375
   TERMINAL TOTAL ............   -35.0 +j    -22.8       41.8       0.8375

ELEMENT = "Line.OH_B52584"
B52582                   2        38.3 +j     24.8       45.6       0.8396
   TERMINAL TOTAL ............    38.3 +j     24.8       45.6       0.8396
B52584                   2       -38.3 +j    -24.8       45.6       0.8394
   TERMINAL TOTAL ............   -38.3 +j    -24.8       45.6       0.8394

ELEMENT = "Line.OH_B41463"
B24504                   3        60.5 +j     39.5       72.2       0.8375
   TERMINAL TOTAL ............    60.5 +j     39.5       72.2       0.8375
B41463                   3       -60.5 +j    -39.5       72.2       0.8374
   TERMINAL TOTAL ............   -60.5 +j    -39.5       72.2       0.8374

ELEMENT = "Line.OH_5905728658"
5906628649               2         4.4 +j      3.0        5.3       0.8274
   TERMINAL TOTAL ............     4.4 +j      3.0        5.3       0.8274
5905728658               2        -4.4 +j     -3.0        5.3       0.8268
   TERMINAL TOTAL ............    -4.4 +j     -3.0        5.3       0.8268

ELEMENT = "Line.OH_B24227"
B15845                   3        65.6 +j     41.9       77.8       0.8429
   TERMINAL TOTAL ............    65.6 +j     41.9       77.8       0.8429
B24227                   3       -65.6 +j    -41.9       77.8       0.8428
   TERMINAL TOTAL ............   -65.6 +j    -41.9       77.8       0.8428

ELEMENT = "Line.OH_B18884"
B18882                   1       678.7 +j     81.5      683.5       0.9929
B18882                   2       648.6 +j     22.0      649.0       0.9994
B18882                   3       419.7 +j   -156.9      448.1      -0.9367
   TERMINAL TOTAL ............  1746.9 +j    -53.4     1747.8      -0.9995
B18884                   1      -678.1 +j    -81.1      682.9       0.9929
B18884                   2      -648.2 +j    -21.5      648.6       0.9994
B18884                   3      -419.6 +j    157.0      448.0      -0.9366
   TERMINAL TOTAL ............ -1745.9 +j     54.4     1746.8      -0.9995

ELEMENT = "Line.OH_B15821"
B13932                   3        95.8 +j     60.9      113.5       0.8440
   TERMINAL TOTAL ............    95.8 +j     60.9      113.5       0.8440
B15821                   3       -95.8 +j    -60.9      113.5       0.8440
   TERMINAL TOTAL ............   -95.8 +j    -60.9      113.5       0.8440

ELEMENT = "Line.OH_B388"
B4888                    1         6.9 +j      5.1        8.5       0.8053
B4888                    2        33.0 +j     21.9       39.6       0.8329
B4888                    3         5.2 +j      3.2        6.1       0.8541
   TERMINAL TOTAL ............    45.0 +j     30.1       54.2       0.8311
B388                     1        -6.9 +j     -5.1        8.5       0.8050
B388                     2       -33.0 +j    -21.9       39.6       0.8328
B388                     3        -5.2 +j     -3.2        6.1       0.8537
   TERMINAL TOTAL ............   -45.0 +j    -30.1       54.2       0.8310

ELEMENT = "Line.OH_B18938"
B18936                   1       585.8 +j     16.2      586.0       0.9996
B18936                   2       585.0 +j    -25.6      585.6      -0.9990
B18936                   3       358.6 +j   -197.6      409.4      -0.8759
   TERMINAL TOTAL ............  1529.4 +j   -206.9     1543.4      -0.9910
B18938                   1      -585.1 +j    -16.0      585.4       0.9996
B18938                   2      -584.5 +j     26.0      585.1      -0.9990
B18938                   3      -358.5 +j    197.7      409.4      -0.8757
   TERMINAL TOTAL ............ -1528.2 +j    207.7     1542.2      -0.9909

ELEMENT = "Line.OH_B47665"
B19046                   1         4.2 +j      3.2        5.3       0.7965
B19046                   2         4.4 +j      3.1        5.4       0.8217
B19046                   3         3.2 +j      2.1        3.9       0.8361
   TERMINAL TOTAL ............    11.9 +j      8.4       14.5       0.8167
B47665                   1        -4.2 +j     -3.2        5.3       0.7963
B47665                   2        -4.4 +j     -3.1        5.4       0.8214
B47665                   3        -3.2 +j     -2.1        3.9       0.8357
   TERMINAL TOTAL ............   -11.9 +j     -8.4       14.5       0.8164

ELEMENT = "Line.OH_B61248"
B60928                   3         5.2 +j      3.3        6.2       0.8451
   TERMINAL TOTAL ............     5.2 +j      3.3        6.2       0.8451
B61248                   3        -5.2 +j     -3.3        6.2       0.8449
   TERMINAL TOTAL ............    -5.2 +j     -3.3        6.2       0.8449

ELEMENT = "Line.OH_B18850"
B18849                   1       701.0 +j     97.3      707.7       0.9905
B18849                   2       765.5 +j    106.1      772.8       0.9905
B18849                   3       433.3 +j   -146.8      457.5      -0.9471
   TERMINAL TOTAL ............  1899.8 +j     56.5     1900.6       0.9996
B18850                   1      -700.7 +j    -97.1      707.4       0.9905
B18850                   2      -765.2 +j   -105.7      772.5       0.9906
B18850                   3      -433.2 +j    146.9      457.5      -0.9470
   TERMINAL TOTAL ............ -1899.2 +j    -56.0     1900.0       0.9996

ELEMENT = "Line.OH_B4962"
B4963                    1      1808.8 +j   -226.6     1822.9      -0.9922
B4963                    2      1949.4 +j   -184.0     1958.1      -0.9956
B4963                    3      2020.2 +j   -186.0     2028.7      -0.9958
   TERMINAL TOTAL ............  5778.3 +j   -596.6     5809.1      -0.9947
B4962                    1     -1808.4 +j    228.1     1822.7      -0.9921
B4962                    2     -1948.7 +j    185.7     1957.5      -0.9955
B4962                    3     -2019.5 +j    188.1     2028.3      -0.9957
   TERMINAL TOTAL ............ -5776.7 +j    601.9     5808.0      -0.9946

ELEMENT = "Line.OH_B18866"
B18865REG                1       696.1 +j     94.3      702.4       0.9910
B18865REG                2       672.2 +j     40.5      673.5       0.9982
B18865REG                3       432.4 +j   -147.9      457.0      -0.9462
   TERMINAL TOTAL ............  1800.7 +j    -13.2     1800.8      -1.0000
B18866                   1      -695.8 +j    -94.1      702.1       0.9910
B18866                   2      -672.1 +j    -40.2      673.3       0.9982
B18866                   3      -432.4 +j    148.0      457.0      -0.9461
   TERMINAL TOTAL ............ -1800.2 +j     13.7     1800.3      -1.0000

ELEMENT = "Line.UG_6060229368"
B19018                   2         7.2 +j      3.3        7.9       0.9070
   TERMINAL TOTAL ............     7.2 +j      3.3        7.9       0.9070
6060229368               2        -7.2 +j     -5.0        8.8       0.8230
   TERMINAL TOTAL ............    -7.2 +j     -5.0        8.8       0.8230

ELEMENT = "Line.OH_B52162"
B46976                   1        38.2 +j     27.5       47.1       0.8121
   TERMINAL TOTAL ............    38.2 +j     27.5       47.1       0.8121
B52162                   1       -38.2 +j    -27.5       47.1       0.8120
   TERMINAL TOTAL ............   -38.2 +j    -27.5       47.1       0.8120

ELEMENT = "Line.OH_G43337"
G43336                   1         4.2 +j      3.2        5.3       0.7964
   TERMINAL TOTAL ............     4.2 +j      3.2        5.3       0.7964
G43337                   1        -4.2 +j     -3.2        5.3       0.7958
   TERMINAL TOTAL ............    -4.2 +j     -3.2        5.3       0.7958

ELEMENT = "Line.OH_B66283"
B4579                    1        50.2 +j     38.0       63.0       0.7975
B4579                    2        56.8 +j     39.3       69.0       0.8223
B4579                    3        38.4 +j     24.9       45.7       0.8390
   TERMINAL TOTAL ............   145.3 +j    102.1      177.6       0.8182
B66283                   1       -50.2 +j    -38.0       63.0       0.7972
B66283                   2       -56.8 +j    -39.3       69.0       0.8221
B66283                   3       -38.4 +j    -24.9       45.7       0.8386
   TERMINAL TOTAL ............  -145.3 +j   -102.3      177.7       0.8178

ELEMENT = "Line.OH_B18977"
B18976                   3        90.8 +j     59.3      108.5       0.8372
   TERMINAL TOTAL ............    90.8 +j     59.3      108.5       0.8372
B18977                   3       -90.8 +j    -59.3      108.4       0.8371
   TERMINAL TOTAL ............   -90.8 +j    -59.3      108.4       0.8371

ELEMENT = "Line.OH_B18839"
B18837                   1       782.8 +j    156.9      798.4       0.9805
B18837                   2       840.2 +j    158.8      855.1       0.9826
B18837                   3       499.4 +j   -102.5      509.8      -0.9796
   TERMINAL TOTAL ............  2122.5 +j    213.2     2133.1       0.9950
B18839                   1      -782.1 +j   -156.4      797.6       0.9806
B18839                   2      -839.6 +j   -157.9      854.3       0.9828
B18839                   3      -499.3 +j    102.6      509.8      -0.9795
   TERMINAL TOTAL ............ -2121.0 +j   -211.7     2131.5       0.9951

ELEMENT = "Line.OH_B46251"
B46250                   3        24.6 +j     16.1       29.4       0.8376
   TERMINAL TOTAL ............    24.6 +j     16.1       29.4       0.8376
B46251                   3       -24.6 +j    -16.1       29.4       0.8374
   TERMINAL TOTAL ............   -24.6 +j    -16.1       29.4       0.8374

ELEMENT = "Line.OH_B60755"
B18926                   3         3.2 +j      2.1        3.9       0.8366
   TERMINAL TOTAL ............     3.2 +j      2.1        3.9       0.8366
B60755                   3        -3.2 +j     -2.1        3.9       0.8360
   TERMINAL TOTAL ............    -3.2 +j     -2.1        3.9       0.8360

ELEMENT = "Line.OH_B19042"
B19040                   1         4.2 +j      3.2        5.3       0.8009
B19040                   2        22.7 +j     15.9       27.7       0.8196
B19040                   3        16.7 +j     11.1       20.0       0.8337
   TERMINAL TOTAL ............    43.6 +j     30.1       53.0       0.8232
B19042                   1        -4.2 +j     -3.2        5.3       0.7996
B19042                   2       -22.7 +j    -15.9       27.7       0.8194
B19042                   3       -16.7 +j    -11.1       20.0       0.8334
   TERMINAL TOTAL ............   -43.6 +j    -30.1       53.0       0.8228

ELEMENT = "Line.OH_B18925"
B18924                   1       604.7 +j     28.6      605.3       0.9989
B18924                   2       599.7 +j    -15.4      599.9      -0.9997
B18924                   3       402.5 +j   -169.4      436.7      -0.9217
   TERMINAL TOTAL ............  1606.9 +j   -156.2     1614.4      -0.9953
B18925                   1      -604.3 +j    -28.5      605.0       0.9989
B18925                   2      -599.4 +j     15.6      599.6      -0.9997
B18925                   3      -402.4 +j    169.4      436.6      -0.9216
   TERMINAL TOTAL ............ -1606.2 +j    156.5     1613.8      -0.9953

ELEMENT = "Line.OH_B22569"
B22561                   1         8.4 +j      6.3       10.5       0.8005
   TERMINAL TOTAL ............     8.4 +j      6.3       10.5       0.8005
B22569                   1        -8.4 +j     -6.3       10.5       0.7991
   TERMINAL TOTAL ............    -8.4 +j     -6.3       10.5       0.7991

ELEMENT = "Line.OH_B4588"
B4591                    1        75.4 +j     57.4       94.7       0.7956
B4591                    2        67.0 +j     46.4       81.5       0.8219
B4591                    3        80.1 +j     52.1       95.6       0.8383
   TERMINAL TOTAL ............   222.5 +j    155.9      271.7       0.8189
B4588                    1       -75.4 +j    -57.4       94.7       0.7955
B4588                    2       -67.0 +j    -46.4       81.5       0.8218
B4588                    3       -80.1 +j    -52.1       95.6       0.8383
...