CPDS_validation_cosim/Network_models/Distribution/J1/J1_VLN_Node.Txt

LINE-GROUND and LINE-LINE VOLTAGES BY BUS & NODE

Bus                  Node    VLN (kV)   Angle      pu     Base kV    Node-Node   VLL (kV)  Angle      pu

S .................. 1       19.645 /_   -4.2   0.98628    34.500        1-2     34.094 /_   25.7   0.98823
   -                 2       19.672 /_ -124.4    0.9876    34.500        2-3     34.022 /_  -94.7   0.98614
   -                 3       19.559 /_  115.3   0.98193    34.500        3-1     33.859 /_  145.6   0.98143
LS_BUS ............. 1       7.4153 /_   -6.7      1.03    12.470        1-2     12.874 /_   23.1    1.0324
   -                 2       7.4226 /_ -127.1     1.031    12.470        2-3     12.837 /_  -97.5    1.0294
   -                 3       7.3584 /_  112.3    1.0221    12.470        3-1     12.733 /_  142.9    1.0211
FEEDERHEAD ......... 1        7.415 /_   -6.7    1.0299    12.470        1-2     12.874 /_   23.1    1.0324
   -                 2       7.4224 /_ -127.1    1.0309    12.470        2-3     12.837 /_  -97.5    1.0294
   -                 3       7.3581 /_  112.3     1.022    12.470        3-1     12.733 /_  142.9    1.0211
B12541 ............. 1       7.3548 /_  -12.6    1.0216    12.470
B13552 ............. 1       7.3534 /_  -12.6    1.0214    12.470
B41868 ............. 1       7.2668 /_  -12.4    1.0093    12.470        1-2     12.765 /_   16.2    1.0236
   -                 2       7.2727 /_ -135.2    1.0102    12.470
B41869 ............. 1       7.2635 /_  -12.4    1.0089    12.470        1-2      12.76 /_   16.2    1.0232
   -                 2       7.2697 /_ -135.2    1.0097    12.470
B4609 .............. 1       7.3779 /_  -11.0    1.0248    12.470        1-2     12.801 /_   18.7    1.0265
   -                 2        7.369 /_ -131.5    1.0235    12.470        2-3      12.86 /_ -102.5    1.0313
   -                 3       7.3439 /_  106.7      1.02    12.470        3-1     12.597 /_  137.9    1.0102
B34986 ............. 3       7.3438 /_  106.7      1.02    12.470
G43132 ............. 3       7.2396 /_  110.6    1.0056    12.470
G43133 ............. 3       7.2395 /_  110.6    1.0055    12.470
B18915 ............. 1       7.3068 /_  -12.4    1.0149    12.470        1-2     12.818 /_   16.8    1.0279
   -                 2       7.3676 /_ -134.2    1.0233    12.470        2-3     12.849 /_ -104.0    1.0304
   -                 3        7.458 /_  105.7    1.0359    12.470        3-1     12.663 /_  136.3    1.0155
B18916 ............. 1       7.3039 /_  -12.4    1.0145    12.470        1-2     12.815 /_   16.8    1.0276
   -                 2       7.3657 /_ -134.2    1.0231    12.470        2-3     12.847 /_ -104.1    1.0302
   -                 3       7.4576 /_  105.7    1.0358    12.470        3-1     12.661 /_  136.3    1.0153
B4833 .............. 1       7.3285 /_  -11.3    1.0179    12.470        1-2     12.773 /_   18.3    1.0243
   -                 2       7.3541 /_ -132.2    1.0215    12.470        2-3     12.848 /_ -102.7    1.0303
   -                 3       7.3971 /_  106.7    1.0274    12.470        3-1     12.619 /_  137.5    1.0119
5862128364 ......... 1       7.3282 /_  -11.3    1.0179    12.470        1-2     12.773 /_   18.3    1.0243
   -                 2       7.3539 /_ -132.2    1.0214    12.470        2-3     12.848 /_ -102.7    1.0303
   -                 3       7.3968 /_  106.7    1.0274    12.470        3-1     12.618 /_  137.5    1.0119
B4787 .............. 1       7.3726 /_  -10.9     1.024    12.470        1-2      12.82 /_   18.8     1.028
   -                 2       7.3831 /_ -131.5    1.0255    12.470        2-3     12.886 /_ -102.3    1.0334
   -                 3       7.3851 /_  106.9    1.0258    12.470        3-1     12.639 /_  138.0    1.0136
B4784 .............. 1       7.3728 /_  -10.9    1.0241    12.470        1-2     12.819 /_   18.8     1.028
   -                 2       7.3827 /_ -131.5    1.0254    12.470        2-3     12.886 /_ -102.3    1.0333
   -                 3       7.3835 /_  106.9    1.0255    12.470        3-1     12.638 /_  138.0    1.0135
B45833 ............. 2       7.2763 /_ -132.9    1.0107    12.470
B45835 ............. 2       7.2759 /_ -132.9    1.0106    12.470
5925528209 ......... 3       7.2355 /_  110.6     1.005    12.470
5925528209A ........ 3       7.2355 /_  110.6     1.005    12.470
6084829720 ......... 1       7.3483 /_  -12.6    1.0207    12.470
B50640 ............. 1       7.3477 /_  -12.6    1.0206    12.470
B4806 .............. 1       7.3713 /_  -10.9    1.0239    12.470        1-2     12.824 /_   18.8    1.0284
   -                 2       7.3855 /_ -131.6    1.0258    12.470        2-3     12.892 /_ -102.3    1.0338
   -                 3       7.3947 /_  107.0    1.0271    12.470        3-1     12.649 /_  138.0    1.0143
B4805 .............. 1       7.3714 /_  -10.9    1.0239    12.470        1-2     12.823 /_   18.8    1.0283
   -                 2       7.3852 /_ -131.6    1.0258    12.470        2-3     12.891 /_ -102.3    1.0338
   -                 3       7.3934 /_  107.0    1.0269    12.470        3-1     12.648 /_  138.0    1.0142
B4711 .............. 1       7.3786 /_  -11.0    1.0249    12.470        1-2     12.803 /_   18.7    1.0267
   -                 2       7.3705 /_ -131.5    1.0237    12.470        2-3     12.862 /_ -102.5    1.0314
   -                 3       7.3451 /_  106.7    1.0202    12.470        3-1     12.599 /_  137.9    1.0104
B4710 .............. 1       7.3783 /_  -11.0    1.0248    12.470        1-2     12.802 /_   18.7    1.0266
   -                 2       7.3703 /_ -131.5    1.0237    12.470        2-3     12.862 /_ -102.5    1.0314
   -                 3       7.3448 /_  106.7    1.0202    12.470        3-1     12.599 /_  137.9    1.0103
B56675 ............. 2        7.199 /_ -135.3   0.99992    12.470
B56678 ............. 2       7.1981 /_ -135.3   0.99979    12.470
B4861 .............. 1        7.376 /_  -10.8    1.0245    12.470        1-2     12.835 /_   18.9    1.0292
   -                 2       7.3926 /_ -131.5    1.0268    12.470        2-3     12.904 /_ -102.2    1.0348
   -                 3       7.4039 /_  107.1    1.0284    12.470        3-1     12.662 /_  138.1    1.0154
B4859 .............. 1       7.3734 /_  -10.8    1.0241    12.470        1-2      12.83 /_   18.9    1.0288
   -                 2       7.3894 /_ -131.5    1.0264    12.470        2-3     12.898 /_ -102.2    1.0344
   -                 3       7.4008 /_  107.1    1.0279    12.470        3-1     12.657 /_  138.0     1.015
B10374 ............. 1       7.3819 /_   -8.0    1.0253    12.470
B41240 ............. 1       7.3817 /_   -8.0    1.0253    12.470
B55545 ............. 3       7.4177 /_  105.4    1.0303    12.470
B55546 ............. 3       7.4176 /_  105.4    1.0303    12.470
B18978 ............. 3       7.4016 /_  105.5    1.0281    12.470
B18979 ............. 3        7.401 /_  105.5     1.028    12.470
B4987 .............. 1       7.3652 /_   -8.8     1.023    12.470        1-2     12.751 /_   20.9    1.0225
   -                 2       7.3229 /_ -129.3    1.0171    12.470        2-3     12.699 /_  -99.9    1.0184
   -                 3       7.2654 /_  109.7    1.0091    12.470        3-1     12.574 /_  140.7    1.0083
B4982 .............. 1       7.3625 /_   -8.9    1.0226    12.470        1-2     12.744 /_   20.7    1.0219
   -                 2       7.3164 /_ -129.4    1.0162    12.470        2-3     12.691 /_ -100.1    1.0177
   -                 3       7.2609 /_  109.5    1.0085    12.470        3-1     12.565 /_  140.5    1.0076
B18901 ............. 1        7.346 /_  -12.3    1.0203    12.470        1-2     12.869 /_   17.0     1.032
   -                 2       7.3934 /_ -133.9    1.0269    12.470        2-3     12.884 /_ -103.9    1.0332
   -                 3       7.4623 /_  105.8    1.0365    12.470        3-1     12.699 /_  136.5    1.0183
B18902 ............. 1       7.3434 /_  -12.3      1.02    12.470        1-2     12.865 /_   17.0    1.0317
   -                 2       7.3917 /_ -133.9    1.0267    12.470        2-3     12.881 /_ -103.9     1.033
   -                 3        7.462 /_  105.8    1.0365    12.470        3-1     12.696 /_  136.5    1.0181
B2526 .............. 1       7.3837 /_   -8.0    1.0256    12.470        1-2     12.791 /_   21.8    1.0257
   -                 2       7.3612 /_ -128.3    1.0225    12.470        2-3     12.745 /_  -99.0    1.0221
   -                 3       7.2847 /_  110.7    1.0118    12.470        3-1     12.619 /_  141.6     1.012
B2532 .............. 1       7.3838 /_   -8.0    1.0256    12.470        1-2      12.79 /_   21.8    1.0257
   -                 2       7.3613 /_ -128.3    1.0225    12.470        2-3     12.745 /_  -99.0     1.022
   -                 3       7.2833 /_  110.7    1.0116    12.470        3-1     12.618 /_  141.6    1.0119
B60890 ............. 2       7.1998 /_ -135.3         1    12.470
B60891 ............. 2       7.1998 /_ -135.3         1    12.470
B47667 ............. 1       7.3694 /_  -10.9    1.0236    12.470        1-2     12.821 /_   18.8    1.0282
   -                 2       7.3836 /_ -131.6    1.0256    12.470        2-3      12.89 /_ -102.2    1.0337
   -                 3       7.3962 /_  107.0    1.0273    12.470        3-1     12.649 /_  138.0    1.0144
B47668 ............. 1       7.3694 /_  -10.9    1.0236    12.470        1-2     12.821 /_   18.8    1.0282
   -                 2       7.3835 /_ -131.6    1.0256    12.470        2-3      12.89 /_ -102.2    1.0337
   -                 3       7.3962 /_  107.0    1.0273    12.470        3-1     12.649 /_  138.0    1.0143
B41462 ............. 3        7.305 /_  106.6    1.0146    12.470
B57845 ............. 3       7.3049 /_  106.6    1.0146    12.470
B4896 .............. 1       7.3369 /_  -10.2    1.0191    12.470        1-2     12.678 /_   19.3    1.0167
   -                 2       7.2551 /_ -130.9    1.0077    12.470        2-3     12.614 /_ -101.6    1.0116
   -                 3       7.2172 /_  107.8    1.0024    12.470        3-1      12.48 /_  139.1    1.0008
B4891 .............. 1        7.334 /_  -10.3    1.0187    12.470        1-2     12.671 /_   19.2    1.0162
   -                 2       7.2498 /_ -131.0     1.007    12.470        2-3     12.607 /_ -101.7     1.011
   -                 3       7.2131 /_  107.7    1.0019    12.470        3-1     12.472 /_  139.0    1.0001
B18856 ............. 1       7.2239 /_  -11.7    1.0034    12.470        1-2      12.63 /_   17.8    1.0129
   -                 2        7.268 /_ -132.9    1.0095    12.470        2-3     12.741 /_ -103.0    1.0217
   -                 3       7.3899 /_  106.3    1.0264    12.470        3-1     12.526 /_  136.9    1.0045
B18858 ............. 1       7.2172 /_  -11.7    1.0025    12.470        1-2     12.621 /_   17.8    1.0121
   -                 2        7.263 /_ -133.0    1.0088    12.470        2-3     12.735 /_ -103.1    1.0212
   -                 3       7.3892 /_  106.3    1.0263    12.470        3-1      12.52 /_  136.9     1.004
B19064 ............. 1       7.3768 /_  -11.0    1.0246    12.470
   -                 3       7.3385 /_  106.8    1.0193    12.470        3-1       12.6 /_  138.0    1.0104
B33451 ............. 1       7.3768 /_  -11.0    1.0246    12.470
   -                 3       7.3383 /_  106.8    1.0193    12.470        3-1       12.6 /_  138.0    1.0104
B60403 ............. 2       7.2781 /_ -134.7    1.0109    12.470
B61746 ............. 2        7.277 /_ -134.7    1.0108    12.470
B56663 ............. 2       7.2055 /_ -135.3    1.0008    12.470
B56664 ............. 2       7.2047 /_ -135.3    1.0007    12.470
B39817 ............. 3       7.4062 /_  105.4    1.0287    12.470
B39819 ............. 3        7.404 /_  105.4    1.0284    12.470
B16708 ............. 3        7.331 /_  106.7    1.0183    12.470
5851228580 ......... 3        7.331 /_  106.7    1.0183    12.470
B18969 ............. 3       7.4092 /_  105.5    1.0291    12.470
B18971 ............. 3       7.4074 /_  105.5    1.0289    12.470
G42392 ............. 3       7.3452 /_  106.5    1.0202    12.470
5918528239 ......... 3       7.3451 /_  106.5    1.0202    12.470
B19004 ............. 3       7.3909 /_  105.5    1.0266    12.470
B8019 .............. 3       7.3907 /_  105.5    1.0265    12.470
B2648 .............. 3       7.2747 /_  110.6    1.0104    12.470
B31756 ............. 3        7.273 /_  110.6    1.0102    12.470
B60842 ............. 3       7.3004 /_  106.8     1.014    12.470
B60843 ............. 3       7.3004 /_  106.8     1.014    12.470
B18997 ............. 3       7.3924 /_  105.5    1.0268    12.470
6095529388 ......... 3       7.3924 /_  105.5    1.0268    12.470
B26169 ............. 3       7.3035 /_  106.6    1.0144    12.470
B44432 ............. 3       7.3029 /_  106.6    1.0144    12.470
B52582 ............. 2       7.2012 /_ -135.3    1.0002    12.470
B52584 ............. 2       7.2002 /_ -135.3    1.0001    12.470
B24504 ............. 3       7.3063 /_  106.6    1.0148    12.470
B41463 ............. 3       7.3058 /_  106.6    1.0148    12.470
5906628649 ......... 2       7.2757 /_ -132.9    1.0106    12.470
5905728658 ......... 2       7.2757 /_ -132.9    1.0106    12.470
B15845 ............. 3       7.2791 /_  106.8     1.011    12.470
B24227 ............. 3       7.2786 /_  106.8     1.011    12.470
B18882 ............. 1       7.4058 /_  -12.0    1.0287    12.470        1-2     12.946 /_   17.3    1.0382
   -                 2       7.4324 /_ -133.5    1.0323    12.470        2-3     12.936 /_ -103.7    1.0374
   -                 3       7.4699 /_  106.0    1.0376    12.470        3-1     12.753 /_  136.9    1.0227
B18884 ............. 1       7.3995 /_  -12.0    1.0278    12.470        1-2     12.938 /_   17.3    1.0375
   -                 2       7.4282 /_ -133.5    1.0318    12.470        2-3     12.931 /_ -103.7    1.0369
   -                 3       7.4691 /_  106.0    1.0374    12.470        3-1     12.748 /_  136.8    1.0223
B13932 ............. 3       7.3065 /_  106.8    1.0149    12.470
B15821 ............. 3        7.305 /_  106.8    1.0146    12.470
B4888 .............. 1       7.3313 /_  -10.4    1.0183    12.470        1-2     12.666 /_   19.1    1.0157
   -                 2       7.2451 /_ -131.1    1.0063    12.470        2-3     12.601 /_ -101.8    1.0105
   -                 3       7.2094 /_  107.6    1.0014    12.470        3-1     12.465 /_  138.9   0.99958
B388 ............... 1       7.3312 /_  -10.4    1.0183    12.470        1-2     12.665 /_   19.1    1.0157
   -                 2       7.2449 /_ -131.1    1.0063    12.470        2-3       12.6 /_ -101.8    1.0105
   -                 3       7.2094 /_  107.6    1.0014    12.470        3-1     12.465 /_  138.9   0.99958
B18936 ............. 1       7.2316 /_  -12.7    1.0045    12.470        1-2     12.715 /_   16.5    1.0197
   -                 2       7.3121 /_ -134.6    1.0156    12.470        2-3     12.777 /_ -104.3    1.0246
   -                 3       7.4432 /_  105.4    1.0338    12.470        3-1     12.586 /_  135.9    1.0093
B18938 ............. 1       7.2239 /_  -12.7    1.0034    12.470        1-2     12.705 /_   16.5    1.0188
   -                 2       7.3062 /_ -134.7    1.0148    12.470        2-3      12.77 /_ -104.3     1.024
   -                 3       7.4418 /_  105.4    1.0336    12.470        3-1     12.578 /_  135.8    1.0087
B19046 ............. 1       7.3696 /_  -10.9    1.0236    12.470        1-2     12.822 /_   18.8    1.0282
   -                 2       7.3837 /_ -131.6    1.0256    12.470        2-3      12.89 /_ -102.2    1.0337
   -                 3       7.3962 /_  107.0    1.0273    12.470        3-1     12.649 /_  138.0    1.0144
B47665 ............. 1       7.3695 /_  -10.9    1.0236    12.470        1-2     12.822 /_   18.8    1.0282
   -                 2       7.3837 /_ -131.6    1.0256    12.470        2-3      12.89 /_ -102.2    1.0337
   -                 3       7.3962 /_  107.0    1.0273    12.470        3-1     12.649 /_  138.0    1.0144
B60928 ............. 3       7.2447 /_  110.6    1.0063    12.470
B61248 ............. 3       7.2447 /_  110.6    1.0063    12.470
B18849 ............. 1       7.2475 /_  -11.6    1.0067    12.470        1-2     12.663 /_   17.9    1.0155
   -                 2        7.287 /_ -132.8    1.0121    12.470        2-3     12.764 /_ -103.0    1.0236
   -                 3        7.392 /_  106.4    1.0267    12.470        3-1     12.547 /_  137.1    1.0062
B18850 ............. 1       7.2442 /_  -11.6    1.0062    12.470        1-2     12.658 /_   17.9    1.0151
   -                 2       7.2841 /_ -132.8    1.0117    12.470        2-3     12.761 /_ -103.0    1.0233
   -                 3       7.3918 /_  106.4    1.0267    12.470        3-1     12.544 /_  137.0     1.006
B4963 .............. 1        7.353 /_   -9.5    1.0213    12.470        1-2     12.719 /_   20.1      1.02
   -                 2       7.2926 /_ -130.0    1.0129    12.470        2-3     12.662 /_ -100.7    1.0154
   -                 3       7.2448 /_  108.8    1.0063    12.470        3-1     12.533 /_  139.9     1.005
B4962 .............. 1       7.3524 /_   -9.5    1.0212    12.470        1-2     12.717 /_   20.1    1.0198
   -                 2       7.2906 /_ -130.1    1.0127    12.470        2-3     12.659 /_ -100.8    1.0152
   -                 3       7.2435 /_  108.8    1.0061    12.470        3-1      12.53 /_  139.9    1.0048
B18865REG .......... 1       7.4616 /_  -11.8    1.0364    12.470        1-2     13.019 /_   17.6    1.0441
   -                 2       7.4707 /_ -133.1    1.0377    12.470        2-3     12.987 /_ -103.5    1.0414
   -                 3       7.4773 /_  106.2    1.0386    12.470        3-1     12.805 /_  137.2    1.0269
B18866 ............. 1       7.4583 /_  -11.8    1.0359    12.470        1-2     13.015 /_   17.5    1.0437
   -                 2       7.4684 /_ -133.2    1.0373    12.470        2-3     12.984 /_ -103.5    1.0412
   -                 3       7.4769 /_  106.2    1.0385    12.470        3-1     12.802 /_  137.2    1.0266
B19018 ............. 1       7.4057 /_  -12.6    1.0286    12.470        1-2     12.955 /_   16.2    1.0389
   -                 2       7.3837 /_ -134.9    1.0256    12.470
6060229368 ......... 2       7.3835 /_ -134.9    1.0255    12.470
B46976 ............. 1       7.2335 /_  -12.4    1.0047    12.470
B52162 ............. 1        7.233 /_  -12.4    1.0047    12.470
G43336 ............. 1       7.4246 /_  -12.6    1.0313    12.470
G43337 ............. 1       7.4245 /_  -12.6    1.0312    12.470
B4579 .............. 1       7.3708 /_  -11.0    1.0238    12.470        1-2      12.79 /_   18.7    1.0257
   -                 2       7.3641 /_ -131.5    1.0229    12.470        2-3      12.85 /_ -102.5    1.0305
   -                 3       7.3379 /_  106.7    1.0192    12.470        3-1     12.586 /_  137.9    1.0093
B66283 ............. 1       7.3692 /_  -11.0    1.0236    12.470        1-2     12.788 /_   18.7    1.0255
   -                 2       7.3626 /_ -131.5    1.0226    12.470        2-3     12.848 /_ -102.5    1.0303
   -                 3       7.3371 /_  106.7    1.0191    12.470        3-1     12.584 /_  137.9    1.0092
B18976 ............. 3       7.4029 /_  105.5    1.0282    12.470
B18977 ............. 3       7.4023 /_  105.5    1.0282    12.470
B18837 ............. 1       7.2919 /_  -11.4    1.0128    12.470        1-2     12.726 /_   18.1    1.0206
   -                 2       7.3256 /_ -132.5    1.0175    12.470        2-3     12.812 /_ -102.8    1.0274
   -                 3       7.3971 /_  106.5    1.0274    12.470        3-1     12.589 /_  137.3    1.0096
B18839 ............. 1        7.284 /_  -11.5    1.0117    12.470        1-2     12.715 /_   18.1    1.0197
   -                 2       7.3189 /_ -132.5    1.0166    12.470        2-3     12.803 /_ -102.8    1.0267
   -                 3       7.3959 /_  106.5    1.0273    12.470        3-1     12.582 /_  137.3     1.009
B46250 ............. 3       7.3319 /_  106.7    1.0184    12.470
B46251 ............. 3       7.3317 /_  106.7    1.0184    12.470
B18926 ............. 1       7.2714 /_  -12.6      1.01    12.470        1-2     12.771 /_   16.7    1.0242
   -                 2        7.343 /_ -134.4    1.0199    12.470        2-3     12.817 /_ -104.2    1.0278
   -                 3       7.4522 /_  105.5    1.0351    12.470        3-1     12.629 /_  136.1    1.0127
B60755 ............. 3       7.4522 /_  105.5    1.0351    12.470
B19040 ............. 1       7.3697 /_  -10.9    1.0236    12.470        1-2     12.822 /_   18.8    1.0282
   -                 2       7.3842 /_ -131.6    1.0256    12.470        2-3     12.891 /_ -102.2    1.0337
   -                 3       7.3965 /_  107.0    1.0274    12.470        3-1      12.65 /_  138.0    1.0144
B19042 ............. 1       7.3697 /_  -10.9    1.0236    12.470        1-2     12.822 /_   18.8    1.0282
   -                 2       7.3838 /_ -131.6    1.0256    12.470        2-3      12.89 /_ -102.2    1.0337
   -                 3       7.3963 /_  107.0    1.0273    12.470        3-1     12.649 /_  138.0    1.0144
B18924 ............. 1       7.2793 /_  -12.5    1.0111    12.470        1-2     12.782 /_   16.7    1.0251
   -                 2       7.3491 /_ -134.4    1.0208    12.470        2-3     12.825 /_ -104.2    1.0284
   -                 3       7.4543 /_  105.6    1.0354    12.470        3-1     12.638 /_  136.1    1.0134
B18925 ............. 1       7.2755 /_  -12.6    1.0105    12.470        1-2     12.777 /_   16.7    1.0246
   -                 2       7.3461 /_ -134.4    1.0204    12.470        2-3     12.821 /_ -104.2    1.0281
   -                 3       7.4533 /_  105.6    1.0352    12.470        3-1     12.633 /_  136.1    1.0131
B22561 ............. 1       7.3847 /_   -8.0    1.0257    12.470
B22569 ............. 1       7.3846 /_   -8.0    1.0257    12.470
B4591 .............. 1       7.3746 /_  -11.0    1.0243    12.470        1-2     12.796 /_   18.7    1.0261
   -                 2       7.3668 /_ -131.5    1.0232    12.470        2-3     12.855 /_ -102.5    1.0308
   -                 3       7.3399 /_  106.7    1.0195    12.470        3-1     12.591 /_  137.9    1.0097
B4588 .............. 1        7.374 /_  -11.0    1.0242    12.470        1-2     12.795 /_   18.7     1.026
   -                 2       7.3663 /_ -131.5    1.0232    12.470        2-3     12.854 /_ -102.5    1.0308
   -                 3       7.3392 /_  106.7    1.0194    12.470        3-1      12.59 /_  137.9    1.0096
B23879 ............. 3       7.3156 /_  106.7    1.0161    12.470
B23880 ............. 3       7.3148 /_  106.7     1.016    12.470
B9952 .............. 2       7.3696 /_ -131.4    1.0236    12.470        2-3     12.854 /_ -102.5    1.0308
   -                 3       7.3337 /_  106.7    1.0186    12.470
B3066 .............. 2       7.3693 /_ -131.4    1.0236    12.470        2-3     12.853 /_ -102.5    1.0307
   -                 3        7.332 /_  106.7    1.0184    12.470
B60407 ............. 2       7.2813 /_ -134.7    1.0114    12.470
B60404 ............. 2       7.2787 /_ -134.7     1.011    12.470
B13630 ............. 1       7.3961 /_   -7.4    1.0273    12.470        1-2     12.827 /_   22.4    1.0287
   -                 2       7.3877 /_ -127.8    1.0261    12.470        2-3     12.785 /_  -98.3    1.0253
   -                 3       7.3198 /_  111.4    1.0167    12.470        3-1     12.671 /_  142.2    1.0161
B5199 .............. 1       7.3953 /_   -7.5    1.0272    12.470        1-2     12.825 /_   22.3    1.0285
   -                 2       7.3862 /_ -127.8    1.0259    12.470        2-3     12.783 /_  -98.4    1.0251
   -                 3       7.3183 /_  111.4    1.0165    12.470        3-1     12.669 /_  142.1    1.0159
B63363 ............. 2       7.2337 /_ -135.3    1.0047    12.470
B63365 ............. 2       7.2336 /_ -135.3    1.0047    12.470
B26202 ............. 3       7.3035 /_  106.6    1.0144    12.470
B26203 ............. 3       7.3035 /_  106.6    1.0144    12.470
B4824 .............. 1       7.3486 /_  -11.1    1.0207    12.470        1-2     12.798 /_   18.6    1.0263
   -                 2       7.3692 /_ -131.9    1.0236    12.470        2-3      12.87 /_ -102.5    1.0321
   -                 3       7.3984 /_  106.8    1.0276    12.470        3-1     12.635 /_  137.8    1.0132
B18823 ............. 1       7.3486 /_  -11.1    1.0207    12.470        1-2     12.798 /_   18.6    1.0263
   -                 2       7.3691 /_ -131.9    1.0236    12.470        2-3      12.87 /_ -102.5    1.0321
   -                 3       7.3984 /_  106.8    1.0276    12.470        3-1     12.635 /_  137.8    1.0132
B61253 ............. 3       7.4417 /_  105.4    1.0336    12.470
B23868 ............. 3       7.3269 /_  106.7    1.0177    12.470
B23869 ............. 3       7.3256 /_  106.7    1.0175    12.470
B2547 .............. 1        7.384 /_   -8.0    1.0256    12.470        1-2      12.79 /_   21.8    1.0256
   -                 2       7.3614 /_ -128.3    1.0225    12.470        2-3     12.745 /_  -99.0     1.022
   -                 3        7.282 /_  110.7    1.0115    12.470        3-1     12.617 /_  141.6    1.0118
B56446 ............. 1        7.384 /_   -8.0    1.0256    12.470
6039329105 ......... 3       7.4165 /_  105.4    1.0301    12.470
6040429119 ......... 3       7.4165 /_  105.4    1.0301    12.470
B43427 ............. 1       7.2442 /_  -12.4    1.0062    12.470        1-2     12.728 /_   16.2    1.0207
   -                 2       7.2457 /_ -135.3    1.0064    12.470
B43429 ............. 1       7.2437 /_  -12.4    1.0061    12.470        1-2     12.724 /_   16.2    1.0204
   -                 2       7.2416 /_ -135.3    1.0058    12.470
B19181 ............. 1       7.3752 /_  -11.0    1.0244    12.470        1-2     12.812 /_   18.8    1.0274
   -                 2       7.3784 /_ -131.5    1.0248    12.470        2-3     12.876 /_ -102.4    1.0326
   -                 3       7.3663 /_  106.8    1.0232    12.470        3-1     12.621 /_  137.9    1.0121
B19183 ............. 1       7.3756 /_  -11.0    1.0245    12.470        1-2     12.811 /_   18.8    1.0274
   -                 2       7.3776 /_ -131.5    1.0247    12.470        2-3     12.875 /_ -102.4    1.0324
   -                 3       7.3641 /_  106.8    1.0228    12.470        3-1     12.619 /_  137.9    1.0119
G36581 ............. 3       7.2461 /_  110.6    1.0065    12.470
5992128369 ......... 3        7.246 /_  110.6    1.0065    12.470
B18982 ............. 3       7.3993 /_  105.5    1.0277    12.470
B18986 ............. 3       7.3972 /_  105.5    1.0274    12.470
B8594 .............. 1       7.3782 /_  -11.0    1.0248    12.470        1-2     12.807 /_   18.8    1.0271
   -                 2       7.3741 /_ -131.5    1.0242    12.470        2-3     12.868 /_ -102.4    1.0319
   -                 3       7.3532 /_  106.7    1.0213    12.470        3-1     12.608 /_  137.9    1.0111
B13651 ............. 1       7.3788 /_  -11.0    1.0249    12.470        1-2     12.807 /_   18.8     1.027
   -                 2       7.3736 /_ -131.5    1.0242    12.470        2-3     12.867 /_ -102.4    1.0319
   -                 3       7.3513 /_  106.7    1.0211    12.470        3-1     12.606 /_  137.9    1.0109
6031828869 ......... 3        7.408 /_  105.4     1.029    12.470
6034528885 ......... 3       7.4079 /_  105.4    1.0289    12.470
6034628876 ......... 3       7.4078 /_  105.4    1.0289    12.470
B37083 ............. 1       7.3744 /_  -11.0    1.0243    12.470        1-2      12.81 /_   18.8    1.0273
   -                 2       7.3773 /_ -131.5    1.0247    12.470        2-3     12.874 /_ -102.4    1.0324
   -                 3       7.3638 /_  106.8    1.0228    12.470        3-1     12.618 /_  137.9    1.0118
B62634 ............. 1       7.3744 /_  -11.0    1.0243    12.470
B3065 .............. 2       7.3685 /_ -131.4    1.0235    12.470        2-3      12.85 /_ -102.5    1.0305
   -                 3       7.3282 /_  106.6    1.0179    12.470
B17575 ............. 2       7.3683 /_ -131.4    1.0234    12.470        2-3     12.849 /_ -102.5    1.0304
   -                 3        7.327 /_  106.6    1.0177    12.470
B10925 ............. 3        7.339 /_  106.7    1.0194    12.470
B23405 ............. 1       7.3811 /_   -8.0    1.0252    12.470
B23406 ............. 1       7.3809 /_   -8.0    1.0252    12.470
B4598 .............. 1       7.3768 /_  -11.0    1.0246    12.470        1-2     12.799 /_   18.7    1.0264
   -                 2       7.3688 /_ -131.5    1.0235    12.470        2-3     12.859 /_ -102.5    1.0312
   -                 3       7.3427 /_  106.7    1.0199    12.470        3-1     12.596 /_  137.9    1.0101
B4594 .............. 1       7.3755 /_  -11.0    1.0244    12.470        1-2     12.797 /_   18.7    1.0262
   -                 2       7.3676 /_ -131.5    1.0233    12.470        2-3     12.856 /_ -102.5     1.031
   -                 3       7.3409 /_  106.7    1.0196    12.470        3-1     12.593 /_  137.9    1.0099
B52160 ............. 3       7.4441 /_  105.4     1.034    12.470
6018228840 ......... 3        7.444 /_  105.4     1.034    12.470
5938028173 ......... 3       7.2364 /_  110.6    1.0051    12.470
5934528183 ......... 3       7.2361 /_  110.6    1.0051    12.470
B5186 .............. 1       7.3856 /_   -7.9    1.0258    12.470        1-2       12.8 /_   21.9    1.0265
   -                 2        7.367 /_ -128.2    1.0233    12.470        2-3     12.755 /_  -98.8    1.0229
   -                 3       7.2975 /_  110.9    1.0136    12.470        3-1     12.635 /_  141.7    1.0133
...